*HEADING
**
** File created at Mon Sep 09 15:54:16 2019
**
** This template extracts the FEModeler mesh in a format
** compatible with ABAQUS input.
**
** MESH NODES
**
** Number of nodes 194
*NODE
       1,    1.673059221E+003,    4.000000000E+003,    0.000000000E+000
       2,    0.000000000E+000,    4.000000000E+003,    0.000000000E+000
       3,    0.000000000E+000,    0.000000000E+000,    0.000000000E+000
       4,    5.000000000E+002,    0.000000000E+000,    0.000000000E+000
       5,    1.794967310E+002,    2.379367128E+002,    0.000000000E+000
       6,    1.929984854E+002,    4.757642738E+002,    0.000000000E+000
       7,    2.076390977E+002,    7.133936658E+002,    0.000000000E+000
       8,    2.233969593E+002,    9.508125316E+002,    0.000000000E+000
       9,    2.402566891E+002,    1.188008012E+003,    0.000000000E+000
      10,    2.583210122E+002,    1.424941220E+003,    0.000000000E+000
      11,    2.776790182E+002,    1.661571542E+003,    0.000000000E+000
      12,    2.983974940E+002,    1.897859368E+003,    0.000000000E+000
      13,    3.205443114E+002,    2.133760821E+003,    0.000000000E+000
      14,    3.441922147E+002,    2.369226209E+003,    0.000000000E+000
      15,    3.694309118E+002,    2.604195336E+003,    0.000000000E+000
      16,    3.963444766E+002,    2.838603287E+003,    0.000000000E+000
      17,    4.249309126E+002,    3.072410261E+003,    0.000000000E+000
      18,    4.552207023E+002,    3.305562766E+003,    0.000000000E+000
      19,    4.875388540E+002,    3.537878383E+003,    0.000000000E+000
      20,    5.220147595E+002,    3.769232810E+003,    0.000000000E+000
** ... 174 like lines cut
**
** MESH ELEMENTS
**
*ELEMENT, TYPE=S8R
1, 53, 5, 70, 3, 83, 84, 78, 77
2, 54, 21, 5, 53, 132, 82, 83, 178
3, 4, 37, 21, 54, 79, 131, 132, 80
4, 5, 6, 69, 70, 81, 87, 193, 84
5, 21, 22, 6, 5, 130, 86, 81, 82
6, 37, 38, 22, 21, 163, 134, 130, 131
7, 6, 7, 68, 69, 85, 90, 192, 87
8, 22, 23, 7, 6, 133, 89, 85, 86
9, 38, 39, 23, 22, 164, 136, 133, 134
10, 7, 8, 67, 68, 88, 93, 191, 90
11, 23, 24, 8, 7, 135, 92, 88, 89
12, 39, 40, 24, 23, 165, 138, 135, 136
13, 8, 9, 66, 67, 91, 96, 190, 93
14, 24, 25, 9, 8, 137, 95, 91, 92
15, 40, 41, 25, 24, 166, 140, 137, 138
16, 9, 10, 65, 66, 94, 99, 189, 96
17, 25, 26, 10, 9, 139, 98, 94, 95
18, 41, 42, 26, 25, 167, 142, 139, 140
19, 10, 11, 64, 65, 97, 102, 188, 99
20, 26, 27, 11, 10, 141, 101, 97, 98
** ... 31 like lines cut
**
** MATERIAL PROPERTIES
**
*MATERIAL, NAME=Structural Steel
*ELASTIC, TYPE=ISOTROPIC
200000., 0.3
*DENSITY
7.85e-006
*EXPANSION, TYPE=ISO
1.2e-005
*SPECIFIC HEAT
434000.
**
*STEP
**
** Loads and Boundary Conditions would go here
**
*ENDSTEP
** End of Data
